wipe
model BasicBuilder -ndm 2 -ndf 2
node 1 0.0 0.0
node 2 1000.0 0.0
node 3 2000.0 0.0
node 4 3000.0 0.0
node 5 4000.0 0.0
node 6 5000.0 0.0
node 7 6000.0 0.0
node 8 7000.0 0.0
node 9 634.4 198.4
node 10 1332.4 198.8
node 11 2575.4 281.5
node 12 3370.2 246.7
node 13 4905.2 173.3
node 14 5117.0 25.1
node 15 6164.2 48.2
node 16 6663.7 150.9
node 17 293.9 653.0
node 18 1428.8 611.3
node 19 3596.9 614.5
node 20 3722.4 508.3
# ... 12 like lines cut
fix 1 1 1
fix 8 0 1
uniaxialMaterial Elastic 1 20100000
element truss 1 1 2 703 1
element truss 2 1 9 334 1
element truss 3 1 17 91 1
element truss 4 1 26 7.230000e+001 1
element truss 5 2 3 703 1
element truss 6 2 9 250 1
element truss 7 2 10 334 1
element truss 8 3 4 91 1
element truss 9 3 10 155 1
element truss 10 3 11 334 1
element truss 11 3 18 366 1
element truss 12 3 28 537 1
element truss 13 4 5 366 1
element truss 14 4 11 442 1
element truss 15 4 12 703 1
element truss 16 5 6 366 1
element truss 17 5 12 155 1
element truss 18 5 13 91 1
element truss 19 5 20 206 1
element truss 20 5 21 537 1
# ... 59 like lines cut
pattern Plain 1 "Linear" {
load 2 0 -500000
load 3 0 -500000
load 4 0 -500000
load 5 0 -500000
load 6 0 -500000
load 7 0 -500000
}
system BandSPD
numberer RCM
constraints Plain
integrator LoadControl 1.0
algorithm Linear
analysis Static
recorder Node -file File-OutDisp.out -node 1 2 3 4 5 6 7 8 9 10 11 12 13 14 15 16 17 18 19 20 21 22 23 24 25 26 27 28 29 30 31 32 -dof 1 2 disp
recorder Element -file File-OutStress.out -ele 1 2 3 4 5 6 7 8 9 10 11 12 13 14 15 16 17 18 19 20 21 22 23 24 25 26 27 28 29 30 31 32 33 34 35 36 37 38 39 40 41 42 43 44 45 46 47 48 49 50 51 52 53 54 55 56 57 58 59 60 61 62 63 64 65 66 67 68 69 70 71 72 73 74 75 76 77 78 79 material stress
analyze 1
quit
